# Developed by Guanru Zhang, Peng Lu, Yilun Zhang, Kevin Tu, and Chen Zhu
# All inquiries should be directed to supcrt@indiana.edu
# On 4/1/2019
# Citation: Zhang GR, Lu P, Zhang YL, Tu K, Zhu C (in review) SUPPHREEQC: A program
#    to generate customized PHREEQC thermodynamic databases from SUPCRTBL and
#    to extend calculations to elevated pressures and temperatures. Computers &
#    Geosciences
# Visit https://hydrogeochem.earth.indiana.edu for updates


# LLNL.DAT framework (LogKs are under varied T and constant P in one-phase region).
# Temperature(oC): 110 - 600
# Constant pressure(bar): 1000
# It's users' responsibility to mind the valid upper limits of temperature and pressure for all data used.


LLNL_AQUEOUS_MODEL_PARAMETERS
-temperatures
  110.0000  159.0000  208.0000  257.0000
  306.0000  355.0000  404.0000  453.0000
  502.0000  551.0000  600.0000
-dh_a
    0.5779    0.6487    0.7339    0.8375
    0.9683    1.1366    1.3711    1.7133
    2.2157    2.9004    3.6724
-dh_b
    0.3420    0.3512    0.3607    0.3703
    0.3805    0.3913    0.4034    0.4174
    0.4328    0.4474    0.4575
-bdot
    0.0818    0.0738    0.0618    0.0455
    0.0254    0.0010   -0.0300   -0.0721
   -0.1143   -0.1713   -0.2370
-co2_coefs        # range: 0-400 oC, 0-500 bar
        -1.0312              0.0012806
          255.9                 0.4445
      -0.001606


SOLUTION_MASTER_SPECIES
Acetate  HAcetate       0.0     Acetate         59.		
Ag	 Ag+		0.0	Ag		107.8682	
Ag(1)	 Ag+		0	Ag                                                            
Ag(2)	 Ag+2   	0	Ag                                                            
Al       Al+3           0.0     Al              26.9815		
Alkalinity HCO3-        1.0     Ca0.5(CO3)0.5   50.05		
As	 H2AsO4-	0.0	As		74.9216		
As(+3)	 H2AsO3-	0.0	As					                      
As(+5)	 H2AsO4-	0.0	As                                                            
Au	 Au+		0.0	Au		196.9665	
Au(+1)	 Au+		0.0	Au                                                            
Au(+3)	 Au+3		0.0	Au                                                            
B        B(OH)3         0.0     B               10.811		
Ba       Ba+2           0.0     Ba              137.3270	
Be	 Be+2		0.0	Be		9.0122		
Bi       Bi+3           0.0     Bi              208.9804	
Br       Br-            0.0     Br              79.904		
Br(-0.3) Br3- 		0	Br                                                            
Br(-1)	 Br-		0	Br                                                            
Br(1)	 BrO-		0	Br                                                            
Br(5)	 BrO3-		0	Br                                                            
Br(7)	 BrO4-		0	Br                                                            
C        HCO3-          1.0     HCO3            12.0110		
C(-4)	 CH4   		0.0	CH4             
C(+2)	 CO   		0	C                                                             
C(+4)    HCO3-          1.0     HCO3                                                          
Ca       Ca+2           0.0     Ca              40.078		
Cd       Cd+2           0.0     Cd              112.411		
Ce	 Ce+3		0.0	Ce		140.115		
Ce(+2)	 Ce+2		0.0	Ce                                                            
Ce(+3)	 Ce+3		0.0	Ce                                                            
Ce(+4)	 Ce+4		0.0	Ce                                                            
Cl       Cl-            0.0     Cl              35.4527		
Cl(-1)	 Cl-		0	Cl                                                            
Cl(1)	 ClO-		0	Cl                                                            
Cl(3)	 ClO2-		0	Cl                                                            
Cl(5)	 ClO3-		0	Cl                                                            
Cl(7)	 ClO4-		0	Cl                                                            
Co	 Co+2		0.0	Co		58.9332		
Co(+2)	 Co+2		0.0	Co                                                            
Co(+3)	 Co+3		0.0	Co                                                            
Cr	 CrO4-2		0.0	CrO4-2  	51.9961		
Cr(+2)	 Cr+2		0.0	Cr                                                            
Cr(+3)	 Cr+3		0.0	Cr                                                            
Cr(+6)	 CrO4-2		0.0	Cr                                                            
Cs	 Cs+		0.0	Cs		132.9054	
Cu       Cu+2           0.0     Cu              63.546		
Cu(+1)   Cu+            0.0     Cu                                                            
Cu(+2)   Cu+2           0.0     Cu                                                            
Dy	 Dy+3		0.0	Dy		162.50		
Dy(+2)	 Dy+2		0.0	Dy                                                            
Dy(+3)	 Dy+3		0.0	Dy                                                            
Dy(+4)	 Dy+4		0.0	Dy					                      
E        e-             0.0     0.0             0.0		
Er	 Er+3		0.0	Er		167.26		
Er(+2)	 Er+2		0.0	Er                                                            
Er(+3)	 Er+3		0.0	Er                                                            
Er(+4)	 Er+4		0.0	Er					                      
Eu	 Eu+3		0.0	Eu		151.965		
Eu(+2)	 Eu+2		0.0	Eu                                                            
Eu(+3)	 Eu+3		0.0	Eu                                                            
Eu(+4)	 Eu+4		0.0	Eu					                      
F        F-             0.0     F               18.9984		
Fe       Fe+2           0.0     Fe              55.847		
Fe(+2)   Fe+2           0.0     Fe                                                            
Fe(+3)   Fe+3           -2.0    Fe                                                            
Fr	 Fr+		0.0	Fr		223.0197	
Ga	 Ga+3		0.0	Ga		69.723		
Gd	 Gd+3		0.0	Gd		157.25		
Gd(+2)	 Gd+2		0.0	Gd                                                            
Gd(+3)	 Gd+3		0.0	Gd                                                            
Gd(+4)	 Gd+4		0.0	Gd					                      
H        H+             -1.     H               1.0079		
H(0)     H2             0.0     H                                                             
H(+1)    H+             -1.     0.0                                                           
He	 He   		0.0	He		4.0026		
Hf	 Hf+4		0.0	Hf		178.49		
Hg	 Hg+2		0.0	Hg		200.59		
Hg(+1)	 Hg2+2		0.0	Hg                                                            
Hg(+2)	 Hg+2		0.0	Hg                                                            
Ho	 Ho+3		0.0	Ho		164.9303	
Ho(+2)	 Ho+2		0.0	Ho                                                            
Ho(+3)	 Ho+3		0.0	Ho                                                            
Ho(+4)	 Ho+4		0.0	Ho					                      
I	 I-		0.0	I		126.9045	
I(-0.3)  I3-		0	I                                                             
I(-1)	 I-		0.0	I                                                             
I(+1)	 IO-		0.0	I                                                             
I(+5)	 IO3-		0.0	I                                                             
I(+7)	 IO4-		0.0	I                                                             
In	 In+3		0.0	In		114.82		
K        K+             0.0     K               39.0983		
Kr	 Kr   		0.0	Kr		83.80		
La	 La+3		0.0	La		138.9055	
La(2)	 La+2		0	La                                                            
La(3)	 La+3		0	La                                                            
Li       Li+            0.0     Li              6.9410		
Lu	 Lu+3		0.0	Lu		174.967		
Lu(+3)   Lu+3		0.0	Lu                                                            
Lu(+4)   Lu+4		0.0	Lu					                      
Mg       Mg+2           0.0     Mg              24.305		
Mn       Mn+2           0.0     Mn              54.938		
Mn(+2)   Mn+2           0.0     Mn                                                            
Mn(+3)   Mn+3           0.0     Mn                                                            
Mn(+6)   MnO4-2		0	Mn                                                            
Mn(+7)   MnO4-		0	Mn                                                            
Mo	 MoO4-2		0.0	Mo		95.94		
N        NH3            1.0     N               14.0067		
N(-3)    NH3            1.0     N                                                             
N(-2)    N2H5+          0.0     N					                      
N(0)     N2             0.0     N                                                             
N(+1)    H2N2O2         0.0     N					                      
N(+3)    NO2-           0.0     N                                                             
N(+5)    NO3-           0.0     N                                                             
Na       Na+            0.0     Na              22.9898		
Nb       HNbO3          0.0     Nb              92.9064		
Nd	 Nd+3		0.0	Nd		144.24		
Nd(+2)	 Nd+2		0.0	Nd                                                            
Nd(+3)	 Nd+3		0.0	Nd                                                            
Nd(+4)	 Nd+4		0.0	Nd					                      
Ne	 Ne   		0.0	Ne		20.1797		
Ni	 Ni+2		0.0	Ni		58.69		
O        H2O            0.0     O               15.994		
O(-2)    H2O            0.0     0.0                                                           
O(-1)    H2O2           0.0     O					                      
O(0)     O2             0.0     O                                                             
P        HPO4-2         2.0     P               30.9738		
P(+1)    H2PO2-         0.0     P					                      
P(+3)    H2PO3-         0.0     P					                      
P(5)     HPO4-2         2.0     P                                                             
Pb       Pb+2           0.0     Pb              207.20		
Pd	 Pd+2		0.0	Pd		106.42		
Pm	 Pm+3		0.0	Pm		147.00		
Pm(+2)	 Pm+2		0.0	Pm                                                            
Pm(+3)	 Pm+3		0.0	Pm                                                            
Pm(+4)   Pm+4		0.0	Pm					                      
Pr	 Pr+3		0.0	Pr		140.9076	
Pr(+2)	 Pr+2		0.0	Pr                                                            
Pr(+3)	 Pr+3		0.0	Pr                                                            
Pr(+4)	 Pr+4		0.0	Pr					                      
Pt       Pt+2           0.0     Pt              195.078		
Ra	 Ra+2		0.0	Ra		226.025		
Rb	 Rb+		0.0	Rb		85.4678		
Re	 ReO4-		0.0	Re		186.207		
Rh       Rh+3           0.0     Rh              102.9055	
Rh(+2)   Rh+2           0.0     Rh					                      
Rh(+3)   Rh+3           0.0     Rh					                      
Rn	 Rn   		0.0	Rn		222.00		
Ru	 RuO4-2		0.0	Ru		101.07		
Ru(+2)	 Ru+2		0.0	Ru                                                            
Ru(+3)	 Ru+3		0.0	Ru                                                            
Ru(+6)	 RuO4-2		0.0	Ru                                                            
S	 SO4-2          0.0     SO4             32.066		
S(-2)	 HS-            1.0     S                                                             
S(+2)	 S2O3-2		0.0	S                                                             
S(+3)	 S2O4-2		0.0	S                                                             
S(+4)	 SO3-2		0.0	S                                                             
S(+5)	 S2O5-2		0.0	S                                                             
S(+6)	 SO4-2          0.0     SO4                                                           
S(+7)	 S2O8-2		0.0	S                                                             
S(+8)	 HSO5-		0.0	S                                                             
Sb	 HSbO2   	0.0	Sb		121.75		
Sc	 Sc+3		0.0	Sc		44.9559		
Se	 SeO3-2		0.0	Se		78.96		
Se(-2)	 HSe-		0.0	Se                                                            
Se(+4)	 SeO3-2		0.0	Se                                                            
Se(+6)	 SeO4-2		0.0	Se                                                            
Si       SiO2           0.0     SiO2            28.0855		
Sm	 Sm+3		0.0	Sm		150.36		
Sm(+2)	 Sm+2		0.0	Sm                                                            
Sm(+3)	 Sm+3		0.0	Sm                                                            
Sm(+4)	 Sm+4		0.0	Sm					                      
Sn	 Sn+2		0.0	Sn		118.71		
Sr       Sr+2           0.0     Sr              87.62		
Tb	 Tb+3		0.0	Tb		158.9253	
Tb(+2)	 Tb+2		0.0	Tb                                                            
Tb(+3)	 Tb+3		0.0	Tb                                                            
Tb(+4)	 Tb+4		0.0	Tb					                      
Tc	 TcO4-		0.0	Tc		98.00		
Th	 Th+4		0.0	Th		232.0381	
Tl	 Tl+		0.0	Tl		204.3833	
Tl(+1)	 Tl+		0.0	Tl                                                            
Tl(+3)	 Tl+3		0.0	Tl                                                            
Tm	 Tm+3		0.0	Tm		168.9342	
Tm(+2)	 Tm+2		0.0	Tm                                                            
Tm(+3)	 Tm+3		0.0	Tm                                                            
Tm(+4)	 Tm+4		0.0	Tm					                      
U	 UO2+2		0.0	U		238.0289	
U(+3)	 U+3		0.0	U                                                             
U(+4)	 U+4		0.0	U                                                             
U(+5)	 UO2+		0.0	U                                                             
U(+6)	 UO2+2		0.0	U                                                             
V	 VO+2		0.0	V		50.9415		
V(+2)    V+2            0.0     V					                      
V(+3)	 V+3		0.0	V                                                             
V(+4)	 VO+2		0.0	V                                                             
V(+5)	 VO2+		0.0	V                                                             
W	 WO4-2		0.0	W		183.85		
Xe	 Xe   		0.0	Xe		131.29		
Y	 Y+3		0.0	Y		88.9059		
Yb	 Yb+3		0.0	Yb		173.04		
Yb(+2)	 Yb+2		0.0	Yb                                                            
Yb(+3)	 Yb+3		0.0	Yb                                                            
Yb(+4)	 Yb+4		0.0	Yb					                      
Zn       Zn+2           0.0     Zn              65.39		
Zr	 ZrO+2		0.0	Zr		91.224		


SOLUTION_SPECIES
Ag+ = Ag+
	-llnl_gamma	2.50
	-log_k	0.00
	-delta_h	0.00
Al+3 = Al+3
	-llnl_gamma	9.00
	-log_k	0.00
	-delta_h	0.00
Au+ = Au+
	-llnl_gamma	4.00
	-log_k	0.00
	-delta_h	0.00
B(OH)3 = B(OH)3
	-llnl_gamma	3.00
	-log_k	0.00
	-delta_h	0.00
Ba+2 = Ba+2
	-llnl_gamma	5.00
	-log_k	0.00
	-delta_h	0.00
Be+2 = Be+2
	-llnl_gamma	8.00
	-log_k	0.00
	-delta_h	0.00
Bi+3 = Bi+3
	-llnl_gamma	5.00
	-log_k	0.00
	-delta_h	0.00
Br- = Br-
	-llnl_gamma	3.00
	-log_k	0.00
	-delta_h	0.00
Ca+2 = Ca+2
	-llnl_gamma	6.00
	-log_k	0.00
	-delta_h	0.00
Cd+2 = Cd+2
	-llnl_gamma	5.00
	-log_k	0.00
	-delta_h	0.00
Ce+3 = Ce+3
	-llnl_gamma	9.00
	-log_k	0.00
	-delta_h	0.00
Cl- = Cl-
	-llnl_gamma	3.00
	-log_k	0.00
	-delta_h	0.00
Co+2 = Co+2
	-llnl_gamma	6.00
	-log_k	0.00
	-delta_h	0.00
CrO4-2 = CrO4-2
	-llnl_gamma	4.00
	-log_k	0.00
	-delta_h	0.00
Cs+ = Cs+
	-llnl_gamma	2.50
	-log_k	0.00
	-delta_h	0.00
Cu+2 = Cu+2
	-llnl_gamma	6.00
	-log_k	0.00
	-delta_h	0.00
Dy+3 = Dy+3
	-llnl_gamma	5.00
	-log_k	0.00
	-delta_h	0.00
Er+3 = Er+3
	-llnl_gamma	5.00
	-log_k	0.00
	-delta_h	0.00
Eu+3 = Eu+3
	-llnl_gamma	5.00
	-log_k	0.00
	-delta_h	0.00
F- = F-
	-llnl_gamma	3.50
	-log_k	0.00
	-delta_h	0.00
Fe+2 = Fe+2
	-llnl_gamma	6.00
	-log_k	0.00
	-delta_h	0.00
Fr+ = Fr+
	-llnl_gamma	4.00
	-log_k	0.00
	-delta_h	0.00
Ga+3 = Ga+3
	-llnl_gamma	5.00
	-log_k	0.00
	-delta_h	0.00
Gd+3 = Gd+3
	-llnl_gamma	5.00
	-log_k	0.00
	-delta_h	0.00
H+ = H+
	-llnl_gamma	9.00
	-log_k	0.00
	-delta_h	0.00
H2AsO4- = H2AsO4-
	-llnl_gamma	4.00
	-log_k	0.00
	-delta_h	0.00
H2O = H2O
	-llnl_gamma	3.00
	-log_k	0.00
	-delta_h	0.00
HAcetate = HAcetate
	-llnl_gamma	3.00
	-log_k	0.00
	-delta_h	0.00
HCO3- = HCO3-
	-llnl_gamma	4.00
	-log_k	0.00
	-delta_h	0.00
HNbO3 = HNbO3
	-llnl_gamma	3.00
	-log_k	0.00
	-delta_h	0.00
HPO4-2 = HPO4-2
	-llnl_gamma	4.00
	-log_k	0.00
	-delta_h	0.00
HSbO2 = HSbO2
	-llnl_gamma	3.00
	-log_k	0.00
	-delta_h	0.00
He = He
	-llnl_gamma	3.00
	-log_k	0.00
	-delta_h	0.00
Hf+4 = Hf+4
	-llnl_gamma	11.00
	-log_k	0.00
	-delta_h	0.00
Hg+2 = Hg+2
	-llnl_gamma	5.00
	-log_k	0.00
	-delta_h	0.00
Ho+3 = Ho+3
	-llnl_gamma	5.00
	-log_k	0.00
	-delta_h	0.00
I- = I-
	-llnl_gamma	3.00
	-log_k	0.00
	-delta_h	0.00
In+3 = In+3
	-llnl_gamma	9.00
	-log_k	0.00
	-delta_h	0.00
K+ = K+
	-llnl_gamma	3.00
	-log_k	0.00
	-delta_h	0.00
Kr = Kr
	-llnl_gamma	3.00
	-log_k	0.00
	-delta_h	0.00
La+3 = La+3
	-llnl_gamma	9.00
	-log_k	0.00
	-delta_h	0.00
Li+ = Li+
	-llnl_gamma	6.00
	-log_k	0.00
	-delta_h	0.00
Lu+3 = Lu+3
	-llnl_gamma	5.00
	-log_k	0.00
	-delta_h	0.00
Mg+2 = Mg+2
	-llnl_gamma	8.00
	-log_k	0.00
	-delta_h	0.00
Mn+2 = Mn+2
	-llnl_gamma	6.00
	-log_k	0.00
	-delta_h	0.00
MoO4-2 = MoO4-2
	-llnl_gamma	4.50
	-log_k	0.00
	-delta_h	0.00
NH3 = NH3
	-llnl_gamma	3.00
	-log_k	0.00
	-delta_h	0.00
Na+ = Na+
	-llnl_gamma	4.00
	-log_k	0.00
	-delta_h	0.00
Nd+3 = Nd+3
	-llnl_gamma	9.00
	-log_k	0.00
	-delta_h	0.00
Ne = Ne
	-llnl_gamma	3.00
	-log_k	0.00
	-delta_h	0.00
Ni+2 = Ni+2
	-llnl_gamma	6.00
	-log_k	0.00
	-delta_h	0.00
Pb+2 = Pb+2
	-llnl_gamma	4.50
	-log_k	0.00
	-delta_h	0.00
Pd+2 = Pd+2
	-llnl_gamma	4.50
	-log_k	0.00
	-delta_h	0.00
Pm+3 = Pm+3
	-llnl_gamma	5.00
	-log_k	0.00
	-delta_h	0.00
Pr+3 = Pr+3
	-llnl_gamma	9.00
	-log_k	0.00
	-delta_h	0.00
Pt+2 = Pt+2
	-llnl_gamma	4.50
	-log_k	0.00
	-delta_h	0.00
Ra+2 = Ra+2
	-llnl_gamma	5.00
	-log_k	0.00
	-delta_h	0.00
Rb+ = Rb+
	-llnl_gamma	2.50
	-log_k	0.00
	-delta_h	0.00
ReO4- = ReO4-
	-llnl_gamma	4.00
	-log_k	0.00
	-delta_h	0.00
Rh+3 = Rh+3
	-llnl_gamma	5.00
	-log_k	0.00
	-delta_h	0.00
Rn = Rn
	-llnl_gamma	3.00
	-log_k	0.00
	-delta_h	0.00
RuO4-2 = RuO4-2
	-llnl_gamma	4.00
	-log_k	0.00
	-delta_h	0.00
SO4-2 = SO4-2
	-llnl_gamma	4.00
	-log_k	0.00
	-delta_h	0.00
Sc+3 = Sc+3
	-llnl_gamma	9.00
	-log_k	0.00
	-delta_h	0.00
SeO3-2 = SeO3-2
	-llnl_gamma	4.00
	-log_k	0.00
	-delta_h	0.00
SiO2 = SiO2
	-llnl_gamma	3.00
	-log_k	0.00
	-delta_h	0.00
Sm+3 = Sm+3
	-llnl_gamma	9.00
	-log_k	0.00
	-delta_h	0.00
Sn+2 = Sn+2
	-llnl_gamma	6.00
	-log_k	0.00
	-delta_h	0.00
Sr+2 = Sr+2
	-llnl_gamma	5.00
	-log_k	0.00
	-delta_h	0.00
Tb+3 = Tb+3
	-llnl_gamma	5.00
	-log_k	0.00
	-delta_h	0.00
TcO4- = TcO4-
	-llnl_gamma	4.00
	-log_k	0.00
	-delta_h	0.00
Th+4 = Th+4
	-llnl_gamma	11.00
	-log_k	0.00
	-delta_h	0.00
Tl+ = Tl+
	-llnl_gamma	2.50
	-log_k	0.00
	-delta_h	0.00
Tm+3 = Tm+3
	-llnl_gamma	5.00
	-log_k	0.00
	-delta_h	0.00
UO2+2 = UO2+2
	-llnl_gamma	4.50
	-log_k	0.00
	-delta_h	0.00
VO+2 = VO+2
	-llnl_gamma	4.50
	-log_k	0.00
	-delta_h	0.00
WO4-2 = WO4-2
	-llnl_gamma	5.00
	-log_k	0.00
	-delta_h	0.00
Xe = Xe
	-llnl_gamma	3.00
	-log_k	0.00
	-delta_h	0.00
Y+3 = Y+3
	-llnl_gamma	9.00
	-log_k	0.00
	-delta_h	0.00
Yb+3 = Yb+3
	-llnl_gamma	5.00
	-log_k	0.00
	-delta_h	0.00
Zn+2 = Zn+2
	-llnl_gamma	6.00
	-log_k	0.00
	-delta_h	0.00
ZrO+2 = ZrO+2
	-llnl_gamma	4.50
	-log_k	0.00
	-delta_h	0.00
e- = e-
	-llnl_gamma	4.00
	-log_k	0.00
	-delta_h	0.00

#**************** secondary master species *********************
0.2500 O2    + 1.0000 Ag+ + 1.0000 H+ = Ag+2 + 0.5000 H2O
	-llnl_gamma	4.50
	-analytic	-1.571137e+03	-3.748049e-01	7.612294e+04	5.884890e+02	-4.392191e+06	9.978649e-05
0.5000 O2    + 1.0000 Au+ + 2.0000 H+ = Au+3 + 1.0000 H2O
	-llnl_gamma	5.00
	-analytic	-4.133981e+03	-9.775929e-01	2.079530e+05	1.548307e+03	-1.158278e+07	2.606180e-04
0.5000 O2    + 3.0000 Br- + 2.0000 H+ = Br3- + 1.0000 H2O
	-llnl_gamma	4.00
	-analytic	1.749790e+03	1.544757e-01	-1.308414e+05	-5.964431e+02	1.117421e+07	2.222042e-05
0.5000 O2    + 1.0000 Br- = BrO-
	-llnl_gamma	4.00
	-analytic	-4.637666e+02	-6.283218e-02	3.000292e+04	1.611756e+02	-2.488032e+06	6.166422e-06
1.5000 O2    + 1.0000 Br- = BrO3-
	-llnl_gamma	3.50
	-analytic	-8.441773e+02	-6.512882e-02	6.416455e+04	2.825184e+02	-5.925931e+06	-1.380584e-05
2.0000 O2    + 1.0000 Br- = BrO4-
	-llnl_gamma	4.00
	-analytic	-1.102759e+03	-9.033847e-02	7.923576e+04	3.706446e+02	-7.569608e+06	-1.523461e-05
1.0000 H2O + 1.0000 H+ + 1.0000 HCO3- = CH4    + 2.0000 O2
	-llnl_gamma	3.00
	-analytic	2.659023e+03	2.258729e-01	-2.519641e+05	-8.993174e+02	1.760336e+07	3.351640e-05
1.0000 H+ + 1.0000 HCO3- = CO    + 1.0000 H2O + 0.5000 O2
	-llnl_gamma	3.00
	-analytic	1.894034e+03	1.631001e-01	-1.612342e+05	-6.406937e+02	1.248545e+07	2.368609e-05
0.5000 H2O + 1.0000 Ce+3 = Ce+2 + 0.2500 O2    + 1.0000 H+
	-llnl_gamma	4.50
	-analytic	2.790004e+03	6.741745e-01	-1.654996e+05	-1.047655e+03	7.753107e+06	-1.820691e-04
0.2500 O2    + 1.0000 Ce+3 + 1.0000 H+ = Ce+4 + 0.5000 H2O
	-llnl_gamma	5.50
	-analytic	-4.318854e+03	-1.009428e+00	2.141826e+05	1.618124e+03	-1.197627e+07	2.704113e-04
0.5000 O2    + 1.0000 Cl- = ClO-
	-llnl_gamma	4.00
	-analytic	-3.991254e+02	-4.414105e-02	2.576812e+04	1.365252e+02	-2.385154e+06	6.227793e-07
1.0000 O2    + 1.0000 Cl- = ClO2-
	-llnl_gamma	4.00
	-analytic	-5.509640e+02	-3.079287e-02	4.015688e+04	1.816283e+02	-4.075931e+06	-1.423770e-05
1.5000 O2    + 1.0000 Cl- = ClO3-
	-llnl_gamma	3.50
	-analytic	-7.886842e+02	-4.778663e-02	6.136757e+04	2.613136e+02	-5.805226e+06	-1.884033e-05
2.0000 O2    + 1.0000 Cl- = ClO4-
	-llnl_gamma	3.50
	-analytic	-1.120805e+03	-8.207697e-02	8.704325e+04	3.747332e+02	-7.839793e+06	-1.959553e-05
0.2500 O2    + 1.0000 Co+2 + 1.0000 H+ = Co+3 + 0.5000 H2O
	-llnl_gamma	5.00
	-analytic	-3.465696e+03	-8.122603e-01	1.729922e+05	1.297165e+03	-1.002710e+07	2.159038e-04
4.0000 H+ + 1.0000 CrO4-2 = Cr+2 + 2.0000 H2O + 1.0000 O2
	-llnl_gamma	4.50
	-analytic	1.028216e+03	-1.620685e-01	-1.326461e+05	-2.872543e+02	1.297245e+07	1.392152e-04
5.0000 H+ + 1.0000 CrO4-2 = Cr+3 + 2.5000 H2O + 0.7500 O2
	-llnl_gamma	9.00
	-analytic	-2.885486e+03	-1.082372e+00	7.443465e+04	1.178347e+03	1.767506e+06	3.846776e-04
0.5000 H2O + 1.0000 Cu+2 = Cu+ + 0.2500 O2    + 1.0000 H+
	-llnl_gamma	4.00
	-analytic	1.948514e+03	4.645998e-01	-1.038152e+05	-7.307430e+02	5.463781e+06	-1.242458e-04
0.5000 H2O + 1.0000 Dy+3 = Dy+2 + 0.2500 O2    + 1.0000 H+
	-llnl_gamma	4.50
	-analytic	2.918921e+03	6.970016e-01	-1.658363e+05	-1.094587e+03	8.170011e+06	-1.873520e-04
0.2500 O2    + 1.0000 Dy+3 + 1.0000 H+ = Dy+4 + 0.5000 H2O
	-llnl_gamma	5.50
	-analytic	-4.358223e+03	-1.022695e+00	2.024498e+05	1.633573e+03	-1.213234e+07	2.740710e-04
0.5000 H2O + 1.0000 Er+3 = Er+2 + 0.2500 O2    + 1.0000 H+
	-llnl_gamma	4.50
	-analytic	2.984962e+03	7.137159e-01	-1.718014e+05	-1.119524e+03	8.344901e+06	-1.919305e-04
0.2500 O2    + 1.0000 Er+3 + 1.0000 H+ = Er+4 + 0.5000 H2O
	-llnl_gamma	5.50
	-analytic	-4.339285e+03	-1.014135e+00	1.957595e+05	1.625682e+03	-1.217120e+07	2.711088e-04
0.5000 H2O + 1.0000 Eu+3 = Eu+2 + 0.2500 O2    + 1.0000 H+
	-llnl_gamma	4.50
	-analytic	2.623884e+03	6.322217e-01	-1.399678e+05	-9.848872e+02	7.248211e+06	-1.706132e-04
0.2500 O2    + 1.0000 Eu+3 + 1.0000 H+ = Eu+4 + 0.5000 H2O
	-llnl_gamma	5.50
	-analytic	-4.561525e+03	-1.070253e+00	2.039156e+05	1.709858e+03	-1.268217e+07	2.870089e-04
0.2500 O2    + 1.0000 Fe+2 + 1.0000 H+ = Fe+3 + 0.5000 H2O
	-llnl_gamma	9.00
	-analytic	-2.881772e+03	-6.831034e-01	1.476974e+05	1.080447e+03	-8.101776e+06	1.828983e-04
0.5000 H2O + 1.0000 Gd+3 = Gd+2 + 0.2500 O2    + 1.0000 H+
	-llnl_gamma	4.50
	-analytic	2.658519e+03	6.365187e-01	-1.595828e+05	-9.973659e+02	7.449756e+06	-1.710231e-04
0.2500 O2    + 1.0000 Gd+3 + 1.0000 H+ = Gd+4 + 0.5000 H2O
	-llnl_gamma	5.50
	-analytic	-4.956410e+03	-1.160904e+00	2.181804e+05	1.856972e+03	-1.386206e+07	3.109069e-04
1.0000 H2O = H2    + 0.5000 O2
	-CO2_llnl_gamma
	-analytic	6.433838e+02	6.019056e-02	-6.428183e+04	-2.182970e+02	4.261383e+06	5.306493e-06
1.0000 H2AsO4- = H2AsO3- + 0.5000 O2
	-llnl_gamma	4.00
	-analytic	3.413839e+02	3.411191e-02	-3.583890e+04	-1.158276e+02	2.191613e+06	1.871596e-06
2.0000 O2    + 2.0000 NH3    = H2N2O2    + 2.0000 H2O
	-llnl_gamma	3.00
	-analytic	-6.003856e+02	-5.543418e-02	7.127547e+04	2.020023e+02	-4.282751e+06	-7.069166e-06
1.0000 H2O + 0.5000 O2    = H2O2
	-llnl_gamma	3.00
	-analytic	-5.323651e+01	-1.173845e-02	-6.673383e+02	1.921442e+01	-4.724348e+05	1.001326e-06
1.0000 HPO4-2 + 1.0000 H+ = H2PO2- + 1.0000 O2
	-llnl_gamma	4.00
	-analytic	2.549366e+03	3.874119e-01	-2.012141e+05	-9.016851e+02	1.263505e+07	-5.141930e-05
1.0000 HPO4-2 + 1.0000 H+ = H2PO3- + 0.5000 O2
	-llnl_gamma	4.00
	-analytic	2.217046e+03	3.575307e-01	-1.572906e+05	-7.890291e+02	1.046455e+07	-5.428682e-05
1.0000 SO4-2 + 1.0000 H+ = HS- + 2.0000 O2
	-llnl_gamma	3.50
	-analytic	2.735057e+03	3.250551e-01	-2.409485e+05	-9.451426e+02	1.582894e+07	-1.071124e-05
1.0000 H+ + 0.5000 O2    + 1.0000 SO4-2 = HSO5-
	-llnl_gamma	4.00
	-analytic	1.316081e+03	2.089302e-01	-9.146978e+04	-4.674749e+02	6.289739e+06	-2.934938e-05
1.0000 H+ + 1.0000 SeO3-2 = HSe- + 1.5000 O2
	-llnl_gamma	4.00
	-analytic	2.434903e+03	3.090843e-01	-1.969686e+05	-8.464219e+02	1.361898e+07	-1.864855e-05
1.0000 H2O + 2.0000 Hg+2 = Hg2+2 + 0.5000 O2    + 2.0000 H+
	-llnl_gamma	4.00
	-analytic	1.994722e+03	4.495107e-01	-1.081308e+05	-7.424859e+02	6.091702e+06	-1.144480e-04
0.5000 H2O + 1.0000 Ho+3 = Ho+2 + 0.2500 O2    + 1.0000 H+
	-llnl_gamma	4.50
	-analytic	2.900250e+03	6.962277e-01	-1.661121e+05	-1.088531e+03	8.039461e+06	-1.877112e-04
0.2500 O2    + 1.0000 Ho+3 + 1.0000 H+ = Ho+4 + 0.5000 H2O
	-llnl_gamma	5.50
	-analytic	-4.351478e+03	-1.017529e+00	1.966804e+05	1.630117e+03	-1.219479e+07	2.721294e-04
2.0000 H+ + 0.5000 O2    + 3.0000 I- = I3- + 1.0000 H2O
	-llnl_gamma	4.00
	-analytic	1.653238e+03	1.171014e-01	-1.230215e+05	-5.573187e+02	1.132524e+07	3.583154e-05
0.5000 O2    + 1.0000 I- = IO-
	-llnl_gamma	4.00
	-analytic	-8.211909e+02	-1.549282e-01	5.061078e+04	2.959654e+02	-3.344926e+06	3.226234e-05
1.5000 O2    + 1.0000 I- = IO3-
	-llnl_gamma	4.00
	-analytic	-1.025800e+03	-9.763812e-02	8.597141e+04	3.473485e+02	-6.612584e+06	-7.010159e-06
2.0000 O2    + 1.0000 I- = IO4-
	-llnl_gamma	3.50
	-analytic	-1.160352e+03	-1.119210e-01	9.258575e+04	3.942016e+02	-7.523857e+06	-7.490798e-06
0.5000 H2O + 1.0000 La+3 = La+2 + 0.2500 O2    + 1.0000 H+
	-llnl_gamma	4.50
	-analytic	2.122212e+03	5.100896e-01	-1.328400e+05	-7.953811e+02	5.913483e+06	-1.371021e-04
0.2500 O2    + 1.0000 Lu+3 + 1.0000 H+ = Lu+4 + 0.5000 H2O
	-llnl_gamma	5.50
	-analytic	-4.472508e+03	-1.044868e+00	1.906033e+05	1.675608e+03	-1.258267e+07	2.791161e-04
0.2500 O2    + 1.0000 Mn+2 + 1.0000 H+ = Mn+3 + 0.5000 H2O
	-llnl_gamma	5.00
	-analytic	-3.728120e+03	-8.817276e-01	1.876926e+05	1.396626e+03	-1.059661e+07	2.359133e-04
1.5000 H2O + 1.0000 Mn+2 + 1.2500 O2    = MnO4- + 3.0000 H+
	-llnl_gamma	3.50
	-analytic	1.370570e+02	3.071724e-01	3.808532e+04	-1.177532e+02	-6.526812e+06	-1.457391e-04
2.0000 H2O + 1.0000 Mn+2 + 1.0000 O2    = MnO4-2 + 4.0000 H+
	-llnl_gamma	4.00
	-analytic	-1.101246e+03	1.442827e-01	1.215230e+05	3.141819e+02	-1.321545e+07	-1.344957e-04
1.5000 O2    + 2.0000 NH3    = N2    + 3.0000 H2O
	-llnl_gamma	3.00
	-analytic	-4.362433e+02	-3.178591e-02	7.004466e+04	1.456418e+02	-2.909880e+06	-6.744433e-06
0.5000 O2    + 1.0000 H+ + 2.0000 NH3    = N2H5+ + 1.0000 H2O
	-llnl_gamma	4.00
	-analytic	-4.686164e+02	-4.598326e-02	4.239425e+04	1.592203e+02	-3.056721e+06	-3.216815e-06
1.5000 O2    + 1.0000 NH3    = NO2- + 1.0000 H2O + 1.0000 H+
	-llnl_gamma	3.00
	-analytic	-1.865166e+03	-1.468939e-01	1.618020e+05	6.287184e+02	-1.253667e+07	-2.907736e-05
2.0000 O2    + 1.0000 NH3    = NO3- + 1.0000 H2O + 1.0000 H+
	-llnl_gamma	3.00
	-analytic	-2.156287e+03	-1.724889e-01	1.894450e+05	7.269964e+02	-1.446264e+07	-3.228349e-05
0.5000 H2O + 1.0000 Nd+3 = Nd+2 + 0.2500 O2    + 1.0000 H+
	-llnl_gamma	4.50
	-analytic	2.459910e+03	5.927093e-01	-1.435970e+05	-9.230417e+02	6.852358e+06	-1.595827e-04
0.2500 O2    + 1.0000 Nd+3 + 1.0000 H+ = Nd+4 + 0.5000 H2O
	-llnl_gamma	5.50
	-analytic	-4.445332e+03	-1.042030e+00	2.041520e+05	1.666293e+03	-1.232053e+07	2.795678e-04
2 H2O = O2 + 4 H+ + 4 e-
	-CO2_llnl_gamma
	-analytic	5.873850e+02	4.799789e-02	-7.043560e+04	-1.996548e+02	3.779822e+06	6.491797e-06
0.5000 H2O + 1.0000 Pm+3 = Pm+2 + 0.2500 O2    + 1.0000 H+
	-llnl_gamma	4.50
	-analytic	2.808276e+03	6.724891e-01	-1.625625e+05	-1.053307e+03	7.929777e+06	-1.805645e-04
0.2500 O2    + 1.0000 Pm+3 + 1.0000 H+ = Pm+4 + 0.5000 H2O
	-llnl_gamma	5.50
	-analytic	-4.195906e+03	-9.802373e-01	1.899704e+05	1.571892e+03	-1.166620e+07	2.624507e-04
0.5000 H2O + 1.0000 Pr+3 = Pr+2 + 0.2500 O2    + 1.0000 H+
	-llnl_gamma	4.50
	-analytic	2.847984e+03	6.862056e-01	-1.645745e+05	-1.069253e+03	7.877592e+06	-1.851679e-04
0.2500 O2    + 1.0000 Pr+3 + 1.0000 H+ = Pr+4 + 0.5000 H2O
	-llnl_gamma	5.50
	-analytic	-4.089693e+03	-9.574158e-01	1.918356e+05	1.532511e+03	-1.134921e+07	2.565950e-04
0.5000 H2O + 1.0000 Rh+3 = Rh+2 + 0.2500 O2    + 1.0000 H+
	-llnl_gamma	4.50
	-analytic	3.207673e+03	7.599308e-01	-1.630108e+05	-1.202413e+03	9.103001e+06	-2.031853e-04
4.0000 H+ + 1.0000 RuO4-2 = Ru+2 + 2.0000 H2O + 1.0000 O2
	-llnl_gamma	4.50
	-analytic	2.141188e+04	4.442025e+00	-1.177236e+06	-7.894941e+03	7.533777e+07	-1.063300e-03
5.0000 H+ + 1.0000 RuO4-2 = Ru+3 + 2.5000 H2O + 0.7500 O2
	-llnl_gamma	5.00
	-analytic	1.820804e+04	3.683655e+00	-1.010362e+06	-6.694016e+03	6.627796e+07	-8.603594e-04
2.0000 SO4-2 + 2.0000 H+ = S2O3-2 + 1.0000 H2O + 2.0000 O2
	-llnl_gamma	4.00
	-analytic	4.011793e+03	4.863842e-01	-3.285221e+05	-1.390835e+03	2.275696e+07	-2.018053e-05