# Developed by Guanru Zhang, Peng Lu, Yilun Zhang, Kevin Tu, and Chen Zhu
# All inquiries should be directed to supcrt@indiana.edu
# On 4/1/2019
# Citation: Zhang GR, Lu P, Zhang YL, Tu K, Zhu C (in review) SUPPHREEQC: A program
#    to generate customized PHREEQC thermodynamic databases from SUPCRTBL and
#    to extend calculations to elevated pressures and temperatures. Computers &
#    Geosciences
# Visit https://hydrogeochem.earth.indiana.edu for updates


# LLNL.DAT framework (LogKs are under varied T and constant P in one-phase region).
# Temperature(oC): 300 - 1000
# Constant pressure(bar): 5000
# It's users' responsibility to mind the valid upper limits of temperature and pressure for all data used.


LLNL_AQUEOUS_MODEL_PARAMETERS
-temperatures
  300.0000  370.0000  440.0000  510.0000
  580.0000  650.0000  720.0000  790.0000
  860.0000  930.0000 1000.0000
-dh_a
    0.6870    0.7621    0.8395    0.9217
    1.0121    1.1115    1.2194    1.3361
    1.4585    1.5877    1.7195
-dh_b
    0.3630    0.3703    0.3766    0.3824
    0.3879    0.3933    0.3986    0.4038
    0.4088    0.4135    0.4179
-bdot
    0.0880    0.0778    0.0624    0.0514
    0.0396    0.0270    0.0140    0.0000
   -0.0158   -0.0319   -0.0480
-co2_coefs        # range: 0-400 oC, 0-500 bar
        -1.0312              0.0012806
          255.9                 0.4445
      -0.001606


SOLUTION_MASTER_SPECIES
Acetate  HAcetate       0.0     Acetate         59.		
Ag	 Ag+		0.0	Ag		107.8682	
Ag(1)	 Ag+		0	Ag                                                            
Ag(2)	 Ag+2   	0	Ag                                                            
Al       Al+3           0.0     Al              26.9815		
Alkalinity HCO3-        1.0     Ca0.5(CO3)0.5   50.05		
As	 H2AsO4-	0.0	As		74.9216		
As(+3)	 H2AsO3-	0.0	As					                      
As(+5)	 H2AsO4-	0.0	As                                                            
Au	 Au+		0.0	Au		196.9665	
Au(+1)	 Au+		0.0	Au                                                            
Au(+3)	 Au+3		0.0	Au                                                            
B        B(OH)3         0.0     B               10.811		
Ba       Ba+2           0.0     Ba              137.3270	
Be	 Be+2		0.0	Be		9.0122		
Bi       Bi+3           0.0     Bi              208.9804	
Br       Br-            0.0     Br              79.904		
Br(-0.3) Br3- 		0	Br                                                            
Br(-1)	 Br-		0	Br                                                            
Br(1)	 BrO-		0	Br                                                            
Br(5)	 BrO3-		0	Br                                                            
Br(7)	 BrO4-		0	Br                                                            
C        HCO3-          1.0     HCO3            12.0110		
C(-4)	 CH4   		0.0	CH4             
C(+2)	 CO   		0	C                                                             
C(+4)    HCO3-          1.0     HCO3                                                          
Ca       Ca+2           0.0     Ca              40.078		
Cd       Cd+2           0.0     Cd              112.411		
Ce	 Ce+3		0.0	Ce		140.115		
Ce(+2)	 Ce+2		0.0	Ce                                                            
Ce(+3)	 Ce+3		0.0	Ce                                                            
Ce(+4)	 Ce+4		0.0	Ce                                                            
Cl       Cl-            0.0     Cl              35.4527		
Cl(-1)	 Cl-		0	Cl                                                            
Cl(1)	 ClO-		0	Cl                                                            
Cl(3)	 ClO2-		0	Cl                                                            
Cl(5)	 ClO3-		0	Cl                                                            
Cl(7)	 ClO4-		0	Cl                                                            
Co	 Co+2		0.0	Co		58.9332		
Co(+2)	 Co+2		0.0	Co                                                            
Co(+3)	 Co+3		0.0	Co                                                            
Cr	 CrO4-2		0.0	CrO4-2  	51.9961		
Cr(+2)	 Cr+2		0.0	Cr                                                            
Cr(+3)	 Cr+3		0.0	Cr                                                            
Cr(+6)	 CrO4-2		0.0	Cr                                                            
Cs	 Cs+		0.0	Cs		132.9054	
Cu       Cu+2           0.0     Cu              63.546		
Cu(+1)   Cu+            0.0     Cu                                                            
Cu(+2)   Cu+2           0.0     Cu                                                            
Dy	 Dy+3		0.0	Dy		162.50		
Dy(+2)	 Dy+2		0.0	Dy                                                            
Dy(+3)	 Dy+3		0.0	Dy                                                            
Dy(+4)	 Dy+4		0.0	Dy					                      
E        e-             0.0     0.0             0.0		
Er	 Er+3		0.0	Er		167.26		
Er(+2)	 Er+2		0.0	Er                                                            
Er(+3)	 Er+3		0.0	Er                                                            
Er(+4)	 Er+4		0.0	Er					                      
Eu	 Eu+3		0.0	Eu		151.965		
Eu(+2)	 Eu+2		0.0	Eu                                                            
Eu(+3)	 Eu+3		0.0	Eu                                                            
Eu(+4)	 Eu+4		0.0	Eu					                      
F        F-             0.0     F               18.9984		
Fe       Fe+2           0.0     Fe              55.847		
Fe(+2)   Fe+2           0.0     Fe                                                            
Fe(+3)   Fe+3           -2.0    Fe                                                            
Fr	 Fr+		0.0	Fr		223.0197	
Ga	 Ga+3		0.0	Ga		69.723		
Gd	 Gd+3		0.0	Gd		157.25		
Gd(+2)	 Gd+2		0.0	Gd                                                            
Gd(+3)	 Gd+3		0.0	Gd                                                            
Gd(+4)	 Gd+4		0.0	Gd					                      
H        H+             -1.     H               1.0079		
H(0)     H2             0.0     H                                                             
H(+1)    H+             -1.     0.0                                                           
He	 He   		0.0	He		4.0026		
Hf	 Hf+4		0.0	Hf		178.49		
Hg	 Hg+2		0.0	Hg		200.59		
Hg(+1)	 Hg2+2		0.0	Hg                                                            
Hg(+2)	 Hg+2		0.0	Hg                                                            
Ho	 Ho+3		0.0	Ho		164.9303	
Ho(+2)	 Ho+2		0.0	Ho                                                            
Ho(+3)	 Ho+3		0.0	Ho                                                            
Ho(+4)	 Ho+4		0.0	Ho					                      
I	 I-		0.0	I		126.9045	
I(-0.3)  I3-		0	I                                                             
I(-1)	 I-		0.0	I                                                             
I(+1)	 IO-		0.0	I                                                             
I(+5)	 IO3-		0.0	I                                                             
I(+7)	 IO4-		0.0	I                                                             
In	 In+3		0.0	In		114.82		
K        K+             0.0     K               39.0983		
Kr	 Kr   		0.0	Kr		83.80		
La	 La+3		0.0	La		138.9055	
La(2)	 La+2		0	La                                                            
La(3)	 La+3		0	La                                                            
Li       Li+            0.0     Li              6.9410		
Lu	 Lu+3		0.0	Lu		174.967		
Lu(+3)   Lu+3		0.0	Lu                                                            
Lu(+4)   Lu+4		0.0	Lu					                      
Mg       Mg+2           0.0     Mg              24.305		
Mn       Mn+2           0.0     Mn              54.938		
Mn(+2)   Mn+2           0.0     Mn                                                            
Mn(+3)   Mn+3           0.0     Mn                                                            
Mn(+6)   MnO4-2		0	Mn                                                            
Mn(+7)   MnO4-		0	Mn                                                            
Mo	 MoO4-2		0.0	Mo		95.94		
N        NH3            1.0     N               14.0067		
N(-3)    NH3            1.0     N                                                             
N(-2)    N2H5+          0.0     N					                      
N(0)     N2             0.0     N                                                             
N(+1)    H2N2O2         0.0     N					                      
N(+3)    NO2-           0.0     N                                                             
N(+5)    NO3-           0.0     N                                                             
Na       Na+            0.0     Na              22.9898		
Nb       HNbO3          0.0     Nb              92.9064		
Nd	 Nd+3		0.0	Nd		144.24		
Nd(+2)	 Nd+2		0.0	Nd                                                            
Nd(+3)	 Nd+3		0.0	Nd                                                            
Nd(+4)	 Nd+4		0.0	Nd					                      
Ne	 Ne   		0.0	Ne		20.1797		
Ni	 Ni+2		0.0	Ni		58.69		
O        H2O            0.0     O               15.994		
O(-2)    H2O            0.0     0.0                                                           
O(-1)    H2O2           0.0     O					                      
O(0)     O2             0.0     O                                                             
P        HPO4-2         2.0     P               30.9738		
P(+1)    H2PO2-         0.0     P					                      
P(+3)    H2PO3-         0.0     P					                      
P(5)     HPO4-2         2.0     P                                                             
Pb       Pb+2           0.0     Pb              207.20		
Pd	 Pd+2		0.0	Pd		106.42		
Pm	 Pm+3		0.0	Pm		147.00		
Pm(+2)	 Pm+2		0.0	Pm                                                            
Pm(+3)	 Pm+3		0.0	Pm                                                            
Pm(+4)   Pm+4		0.0	Pm					                      
Pr	 Pr+3		0.0	Pr		140.9076	
Pr(+2)	 Pr+2		0.0	Pr                                                            
Pr(+3)	 Pr+3		0.0	Pr                                                            
Pr(+4)	 Pr+4		0.0	Pr					                      
Pt       Pt+2           0.0     Pt              195.078		
Ra	 Ra+2		0.0	Ra		226.025		
Rb	 Rb+		0.0	Rb		85.4678		
Re	 ReO4-		0.0	Re		186.207		
Rh       Rh+3           0.0     Rh              102.9055	
Rh(+2)   Rh+2           0.0     Rh					                      
Rh(+3)   Rh+3           0.0     Rh					                      
Rn	 Rn   		0.0	Rn		222.00		
Ru	 RuO4-2		0.0	Ru		101.07		
Ru(+2)	 Ru+2		0.0	Ru                                                            
Ru(+3)	 Ru+3		0.0	Ru                                                            
Ru(+6)	 RuO4-2		0.0	Ru                                                            
S	 SO4-2          0.0     SO4             32.066		
S(-2)	 HS-            1.0     S                                                             
S(+2)	 S2O3-2		0.0	S                                                             
S(+3)	 S2O4-2		0.0	S                                                             
S(+4)	 SO3-2		0.0	S                                                             
S(+5)	 S2O5-2		0.0	S                                                             
S(+6)	 SO4-2          0.0     SO4                                                           
S(+7)	 S2O8-2		0.0	S                                                             
S(+8)	 HSO5-		0.0	S                                                             
Sb	 HSbO2   	0.0	Sb		121.75		
Sc	 Sc+3		0.0	Sc		44.9559		
Se	 SeO3-2		0.0	Se		78.96		
Se(-2)	 HSe-		0.0	Se                                                            
Se(+4)	 SeO3-2		0.0	Se                                                            
Se(+6)	 SeO4-2		0.0	Se                                                            
Si       SiO2           0.0     SiO2            28.0855		
Sm	 Sm+3		0.0	Sm		150.36		
Sm(+2)	 Sm+2		0.0	Sm                                                            
Sm(+3)	 Sm+3		0.0	Sm                                                            
Sm(+4)	 Sm+4		0.0	Sm					                      
Sn	 Sn+2		0.0	Sn		118.71		
Sr       Sr+2           0.0     Sr              87.62		
Tb	 Tb+3		0.0	Tb		158.9253	
Tb(+2)	 Tb+2		0.0	Tb                                                            
Tb(+3)	 Tb+3		0.0	Tb                                                            
Tb(+4)	 Tb+4		0.0	Tb					                      
Tc	 TcO4-		0.0	Tc		98.00		
Th	 Th+4		0.0	Th		232.0381	
Tl	 Tl+		0.0	Tl		204.3833	
Tl(+1)	 Tl+		0.0	Tl                                                            
Tl(+3)	 Tl+3		0.0	Tl                                                            
Tm	 Tm+3		0.0	Tm		168.9342	
Tm(+2)	 Tm+2		0.0	Tm                                                            
Tm(+3)	 Tm+3		0.0	Tm                                                            
Tm(+4)	 Tm+4		0.0	Tm					                      
U	 UO2+2		0.0	U		238.0289	
U(+3)	 U+3		0.0	U                                                             
U(+4)	 U+4		0.0	U                                                             
U(+5)	 UO2+		0.0	U                                                             
U(+6)	 UO2+2		0.0	U                                                             
V	 VO+2		0.0	V		50.9415		
V(+2)    V+2            0.0     V					                      
V(+3)	 V+3		0.0	V                                                             
V(+4)	 VO+2		0.0	V                                                             
V(+5)	 VO2+		0.0	V                                                             
W	 WO4-2		0.0	W		183.85		
Xe	 Xe   		0.0	Xe		131.29		
Y	 Y+3		0.0	Y		88.9059		
Yb	 Yb+3		0.0	Yb		173.04		
Yb(+2)	 Yb+2		0.0	Yb                                                            
Yb(+3)	 Yb+3		0.0	Yb                                                            
Yb(+4)	 Yb+4		0.0	Yb					                      
Zn       Zn+2           0.0     Zn              65.39		
Zr	 ZrO+2		0.0	Zr		91.224		


SOLUTION_SPECIES
Ag+ = Ag+
	-llnl_gamma	2.50
	-log_k	0.00
	-delta_h	0.00
Al+3 = Al+3
	-llnl_gamma	9.00
	-log_k	0.00
	-delta_h	0.00
Au+ = Au+
	-llnl_gamma	4.00
	-log_k	0.00
	-delta_h	0.00
B(OH)3 = B(OH)3
	-llnl_gamma	3.00
	-log_k	0.00
	-delta_h	0.00
Ba+2 = Ba+2
	-llnl_gamma	5.00
	-log_k	0.00
	-delta_h	0.00
Be+2 = Be+2
	-llnl_gamma	8.00
	-log_k	0.00
	-delta_h	0.00
Bi+3 = Bi+3
	-llnl_gamma	5.00
	-log_k	0.00
	-delta_h	0.00
Br- = Br-
	-llnl_gamma	3.00
	-log_k	0.00
	-delta_h	0.00
Ca+2 = Ca+2
	-llnl_gamma	6.00
	-log_k	0.00
	-delta_h	0.00
Cd+2 = Cd+2
	-llnl_gamma	5.00
	-log_k	0.00
	-delta_h	0.00
Ce+3 = Ce+3
	-llnl_gamma	9.00
	-log_k	0.00
	-delta_h	0.00
Cl- = Cl-
	-llnl_gamma	3.00
	-log_k	0.00
	-delta_h	0.00
Co+2 = Co+2
	-llnl_gamma	6.00
	-log_k	0.00
	-delta_h	0.00
CrO4-2 = CrO4-2
	-llnl_gamma	4.00
	-log_k	0.00
	-delta_h	0.00
Cs+ = Cs+
	-llnl_gamma	2.50
	-log_k	0.00
	-delta_h	0.00
Cu+2 = Cu+2
	-llnl_gamma	6.00
	-log_k	0.00
	-delta_h	0.00
Dy+3 = Dy+3
	-llnl_gamma	5.00
	-log_k	0.00
	-delta_h	0.00
Er+3 = Er+3
	-llnl_gamma	5.00
	-log_k	0.00
	-delta_h	0.00
Eu+3 = Eu+3
	-llnl_gamma	5.00
	-log_k	0.00
	-delta_h	0.00
F- = F-
	-llnl_gamma	3.50
	-log_k	0.00
	-delta_h	0.00
Fe+2 = Fe+2
	-llnl_gamma	6.00
	-log_k	0.00
	-delta_h	0.00
Fr+ = Fr+
	-llnl_gamma	4.00
	-log_k	0.00
	-delta_h	0.00
Ga+3 = Ga+3
	-llnl_gamma	5.00
	-log_k	0.00
	-delta_h	0.00
Gd+3 = Gd+3
	-llnl_gamma	5.00
	-log_k	0.00
	-delta_h	0.00
H+ = H+
	-llnl_gamma	9.00
	-log_k	0.00
	-delta_h	0.00
H2AsO4- = H2AsO4-
	-llnl_gamma	4.00
	-log_k	0.00
	-delta_h	0.00
H2O = H2O
	-llnl_gamma	3.00
	-log_k	0.00
	-delta_h	0.00
HAcetate = HAcetate
	-llnl_gamma	3.00
	-log_k	0.00
	-delta_h	0.00
HCO3- = HCO3-
	-llnl_gamma	4.00
	-log_k	0.00
	-delta_h	0.00
HNbO3 = HNbO3
	-llnl_gamma	3.00
	-log_k	0.00
	-delta_h	0.00
HPO4-2 = HPO4-2
	-llnl_gamma	4.00
	-log_k	0.00
	-delta_h	0.00
HSbO2 = HSbO2
	-llnl_gamma	3.00
	-log_k	0.00
	-delta_h	0.00
He = He
	-llnl_gamma	3.00
	-log_k	0.00
	-delta_h	0.00
Hf+4 = Hf+4
	-llnl_gamma	11.00
	-log_k	0.00
	-delta_h	0.00
Hg+2 = Hg+2
	-llnl_gamma	5.00
	-log_k	0.00
	-delta_h	0.00
Ho+3 = Ho+3
	-llnl_gamma	5.00
	-log_k	0.00
	-delta_h	0.00
I- = I-
	-llnl_gamma	3.00
	-log_k	0.00
	-delta_h	0.00
In+3 = In+3
	-llnl_gamma	9.00
	-log_k	0.00
	-delta_h	0.00
K+ = K+
	-llnl_gamma	3.00
	-log_k	0.00
	-delta_h	0.00
Kr = Kr
	-llnl_gamma	3.00
	-log_k	0.00
	-delta_h	0.00
La+3 = La+3
	-llnl_gamma	9.00
	-log_k	0.00
	-delta_h	0.00
Li+ = Li+
	-llnl_gamma	6.00
	-log_k	0.00
	-delta_h	0.00
Lu+3 = Lu+3
	-llnl_gamma	5.00
	-log_k	0.00
	-delta_h	0.00
Mg+2 = Mg+2
	-llnl_gamma	8.00
	-log_k	0.00
	-delta_h	0.00
Mn+2 = Mn+2
	-llnl_gamma	6.00
	-log_k	0.00
	-delta_h	0.00
MoO4-2 = MoO4-2
	-llnl_gamma	4.50
	-log_k	0.00
	-delta_h	0.00
NH3 = NH3
	-llnl_gamma	3.00
	-log_k	0.00
	-delta_h	0.00
Na+ = Na+
	-llnl_gamma	4.00
	-log_k	0.00
	-delta_h	0.00
Nd+3 = Nd+3
	-llnl_gamma	9.00
	-log_k	0.00
	-delta_h	0.00
Ne = Ne
	-llnl_gamma	3.00
	-log_k	0.00
	-delta_h	0.00
Ni+2 = Ni+2
	-llnl_gamma	6.00
	-log_k	0.00
	-delta_h	0.00
Pb+2 = Pb+2
	-llnl_gamma	4.50
	-log_k	0.00
	-delta_h	0.00
Pd+2 = Pd+2
	-llnl_gamma	4.50
	-log_k	0.00
	-delta_h	0.00
Pm+3 = Pm+3
	-llnl_gamma	5.00
	-log_k	0.00
	-delta_h	0.00
Pr+3 = Pr+3
	-llnl_gamma	9.00
	-log_k	0.00
	-delta_h	0.00
Pt+2 = Pt+2
	-llnl_gamma	4.50
	-log_k	0.00
	-delta_h	0.00
Ra+2 = Ra+2
	-llnl_gamma	5.00
	-log_k	0.00
	-delta_h	0.00
Rb+ = Rb+
	-llnl_gamma	2.50
	-log_k	0.00
	-delta_h	0.00
ReO4- = ReO4-
	-llnl_gamma	4.00
	-log_k	0.00
	-delta_h	0.00
Rh+3 = Rh+3
	-llnl_gamma	5.00
	-log_k	0.00
	-delta_h	0.00
Rn = Rn
	-llnl_gamma	3.00
	-log_k	0.00
	-delta_h	0.00
RuO4-2 = RuO4-2
	-llnl_gamma	4.00
	-log_k	0.00
	-delta_h	0.00
SO4-2 = SO4-2
	-llnl_gamma	4.00
	-log_k	0.00
	-delta_h	0.00
Sc+3 = Sc+3
	-llnl_gamma	9.00
	-log_k	0.00
	-delta_h	0.00
SeO3-2 = SeO3-2
	-llnl_gamma	4.00
	-log_k	0.00
	-delta_h	0.00
SiO2 = SiO2
	-llnl_gamma	3.00
	-log_k	0.00
	-delta_h	0.00
Sm+3 = Sm+3
	-llnl_gamma	9.00
	-log_k	0.00
	-delta_h	0.00
Sn+2 = Sn+2
	-llnl_gamma	6.00
	-log_k	0.00
	-delta_h	0.00
Sr+2 = Sr+2
	-llnl_gamma	5.00
	-log_k	0.00
	-delta_h	0.00
Tb+3 = Tb+3
	-llnl_gamma	5.00
	-log_k	0.00
	-delta_h	0.00
TcO4- = TcO4-
	-llnl_gamma	4.00
	-log_k	0.00
	-delta_h	0.00
Th+4 = Th+4
	-llnl_gamma	11.00
	-log_k	0.00
	-delta_h	0.00
Tl+ = Tl+
	-llnl_gamma	2.50
	-log_k	0.00
	-delta_h	0.00
Tm+3 = Tm+3
	-llnl_gamma	5.00
	-log_k	0.00
	-delta_h	0.00
UO2+2 = UO2+2
	-llnl_gamma	4.50
	-log_k	0.00
	-delta_h	0.00
VO+2 = VO+2
	-llnl_gamma	4.50
	-log_k	0.00
	-delta_h	0.00
WO4-2 = WO4-2
	-llnl_gamma	5.00
	-log_k	0.00
	-delta_h	0.00
Xe = Xe
	-llnl_gamma	3.00
	-log_k	0.00
	-delta_h	0.00
Y+3 = Y+3
	-llnl_gamma	9.00
	-log_k	0.00
	-delta_h	0.00
Yb+3 = Yb+3
	-llnl_gamma	5.00
	-log_k	0.00
	-delta_h	0.00
Zn+2 = Zn+2
	-llnl_gamma	6.00
	-log_k	0.00
	-delta_h	0.00
ZrO+2 = ZrO+2
	-llnl_gamma	4.50
	-log_k	0.00
	-delta_h	0.00
e- = e-
	-llnl_gamma	4.00
	-log_k	0.00
	-delta_h	0.00

#**************** secondary master species *********************
0.2500 O2    + 1.0000 Ag+ + 1.0000 H+ = Ag+2 + 0.5000 H2O
	-llnl_gamma	4.50
	-analytic	-8.253755e+02	-9.588795e-02	6.546060e+04	2.799926e+02	-6.589371e+06	1.262053e-05
0.5000 O2    + 1.0000 Au+ + 2.0000 H+ = Au+3 + 1.0000 H2O
	-llnl_gamma	5.00
	-analytic	-1.825193e+03	-2.091741e-01	1.511990e+05	6.191871e+02	-1.456949e+07	2.756190e-05
0.5000 O2    + 3.0000 Br- + 2.0000 H+ = Br3- + 1.0000 H2O
	-llnl_gamma	4.00
	-analytic	1.448892e+03	1.824991e-01	-1.129990e+05	-4.992025e+02	1.139372e+07	-2.424705e-05
0.5000 O2    + 1.0000 Br- = BrO-
	-llnl_gamma	4.00
	-analytic	-7.617363e+01	-1.105787e-02	5.237549e+03	2.455365e+01	-6.308162e+05	1.430636e-06
1.5000 O2    + 1.0000 Br- = BrO3-
	-llnl_gamma	3.50
	-analytic	9.221275e+01	1.806471e-03	-8.641803e+03	-3.287543e+01	3.514844e+05	-2.254916e-07
2.0000 O2    + 1.0000 Br- = BrO4-
	-llnl_gamma	4.00
	-analytic	1.363665e+02	4.153452e-03	-1.678701e+04	-4.786850e+01	7.395601e+05	-4.690260e-07
1.0000 H2O + 1.0000 H+ + 1.0000 HCO3- = CH4    + 2.0000 O2
	-llnl_gamma	3.00
	-analytic	7.473705e+02	1.085438e-01	-1.086035e+05	-2.553443e+02	6.399822e+06	-1.431910e-05
1.0000 H+ + 1.0000 HCO3- = CO    + 1.0000 H2O + 0.5000 O2
	-llnl_gamma	3.00
	-analytic	5.819268e+02	8.451328e-02	-6.282390e+04	-1.989726e+02	4.820391e+06	-1.126391e-05
0.5000 H2O + 1.0000 Ce+3 = Ce+2 + 0.2500 O2    + 1.0000 H+
	-llnl_gamma	4.50
	-analytic	1.115389e+03	1.305316e-01	-1.200528e+05	-3.779216e+02	9.173097e+06	-1.728931e-05
0.2500 O2    + 1.0000 Ce+3 + 1.0000 H+ = Ce+4 + 0.5000 H2O
	-llnl_gamma	5.50
	-analytic	-1.220229e+03	-1.341975e-01	9.722454e+04	4.142789e+02	-9.374951e+06	1.766478e-05
0.5000 O2    + 1.0000 Cl- = ClO-
	-llnl_gamma	4.00
	-analytic	-4.577710e+01	-7.656003e-03	9.661816e+02	1.464127e+01	-3.762197e+05	1.035285e-06
1.0000 O2    + 1.0000 Cl- = ClO2-
	-llnl_gamma	4.00
	-analytic	3.007941e+01	-1.490616e-03	-6.891735e+03	-1.129222e+01	5.793414e+04	2.126721e-07
1.5000 O2    + 1.0000 Cl- = ClO3-
	-llnl_gamma	3.50
	-analytic	1.647800e+02	1.029843e-02	-1.586890e+04	-5.691047e+01	1.105672e+06	-1.290083e-06
2.0000 O2    + 1.0000 Cl- = ClO4-
	-llnl_gamma	3.50
	-analytic	1.783101e+02	1.029202e-02	-1.536313e+04	-6.225657e+01	1.136095e+06	-1.380114e-06
0.2500 O2    + 1.0000 Co+2 + 1.0000 H+ = Co+3 + 0.5000 H2O
	-llnl_gamma	5.00
	-analytic	-9.819773e+02	-1.132482e-01	7.920692e+04	3.326983e+02	-7.955469e+06	1.485495e-05
4.0000 H+ + 1.0000 CrO4-2 = Cr+2 + 2.0000 H2O + 1.0000 O2
	-llnl_gamma	4.50
	-analytic	3.069484e+02	6.032914e-02	-3.264819e+04	-1.068179e+02	2.533856e+06	-8.168605e-06
5.0000 H+ + 1.0000 CrO4-2 = Cr+3 + 2.5000 H2O + 0.7500 O2
	-llnl_gamma	9.00
	-analytic	-8.368533e+02	-7.148715e-02	7.190030e+04	2.808282e+02	-6.676269e+06	9.258127e-06
0.5000 H2O + 1.0000 Cu+2 = Cu+ + 0.2500 O2    + 1.0000 H+
	-llnl_gamma	4.00
	-analytic	7.890537e+02	9.151422e-02	-7.151366e+04	-2.678609e+02	6.313944e+06	-1.197654e-05
0.5000 H2O + 1.0000 Dy+3 = Dy+2 + 0.2500 O2    + 1.0000 H+
	-llnl_gamma	4.50
	-analytic	9.956514e+02	1.151813e-01	-1.028278e+05	-3.370177e+02	8.048001e+06	-1.510855e-05
0.2500 O2    + 1.0000 Dy+3 + 1.0000 H+ = Dy+4 + 0.5000 H2O
	-llnl_gamma	5.50
	-analytic	-1.268779e+03	-1.412771e-01	8.833725e+04	4.308030e+02	-9.960228e+06	1.864918e-05
0.5000 H2O + 1.0000 Er+3 = Er+2 + 0.2500 O2    + 1.0000 H+
	-llnl_gamma	4.50
	-analytic	1.090833e+03	1.261927e-01	-1.137631e+05	-3.693272e+02	8.905560e+06	-1.665203e-05
0.2500 O2    + 1.0000 Er+3 + 1.0000 H+ = Er+4 + 0.5000 H2O
	-llnl_gamma	5.50
	-analytic	-1.200560e+03	-1.334961e-01	7.603826e+04	4.077813e+02	-9.345201e+06	1.758710e-05
0.5000 H2O + 1.0000 Eu+3 = Eu+2 + 0.2500 O2    + 1.0000 H+
	-llnl_gamma	4.50
	-analytic	9.528982e+02	1.110402e-01	-8.890488e+04	-3.225372e+02	7.704065e+06	-1.459558e-05
0.2500 O2    + 1.0000 Eu+3 + 1.0000 H+ = Eu+4 + 0.5000 H2O
	-llnl_gamma	5.50
	-analytic	-1.269300e+03	-1.407880e-01	7.957087e+04	4.309428e+02	-9.904859e+06	1.853304e-05
0.2500 O2    + 1.0000 Fe+2 + 1.0000 H+ = Fe+3 + 0.5000 H2O
	-llnl_gamma	9.00
	-analytic	-9.505568e+02	-1.094692e-01	8.199650e+04	3.224451e+02	-7.632005e+06	1.442229e-05
0.5000 H2O + 1.0000 Gd+3 = Gd+2 + 0.2500 O2    + 1.0000 H+
	-llnl_gamma	4.50
	-analytic	9.777395e+02	1.135543e-01	-1.084016e+05	-3.312556e+02	7.987722e+06	-1.491626e-05
0.2500 O2    + 1.0000 Gd+3 + 1.0000 H+ = Gd+4 + 0.5000 H2O
	-llnl_gamma	5.50
	-analytic	-1.327450e+03	-1.471672e-01	7.858410e+04	4.501226e+02	-1.039766e+07	1.933925e-05
1.0000 H2O = H2    + 0.5000 O2
	-CO2_llnl_gamma
	-analytic	5.155127e+01	1.178940e-02	-2.044828e+04	-1.696419e+01	6.834591e+05	-1.443382e-06
1.0000 H2AsO4- = H2AsO3- + 0.5000 O2
	-llnl_gamma	4.00
	-analytic	-1.042141e+01	1.950935e-03	-9.784263e+03	4.412738e+00	3.147250e+04	-2.071811e-07
2.0000 O2    + 2.0000 NH3    = H2N2O2    + 2.0000 H2O
	-llnl_gamma	3.00
	-analytic	3.980117e+00	-9.436986e-03	2.566916e+04	-2.690009e+00	-4.453023e+05	1.055923e-06
1.0000 H2O + 0.5000 O2    = H2O2
	-llnl_gamma	3.00
	-analytic	5.433496e+01	1.356376e-03	-8.703467e+03	-1.805019e+01	2.476117e+05	-8.683475e-08
1.0000 HPO4-2 + 1.0000 H+ = H2PO2- + 1.0000 O2
	-llnl_gamma	4.00
	-analytic	1.153392e+03	1.472228e-01	-1.290412e+05	-3.922889e+02	9.323365e+06	-1.948344e-05
1.0000 HPO4-2 + 1.0000 H+ = H2PO3- + 0.5000 O2
	-llnl_gamma	4.00
	-analytic	1.209213e+03	1.509974e-01	-1.146536e+05	-4.115126e+02	9.736756e+06	-1.997851e-05
1.0000 SO4-2 + 1.0000 H+ = HS- + 2.0000 O2
	-llnl_gamma	3.50
	-analytic	9.677807e+02	1.316923e-01	-1.255335e+05	-3.287090e+02	7.928685e+06	-1.750293e-05
1.0000 H+ + 0.5000 O2    + 1.0000 SO4-2 = HSO5-
	-llnl_gamma	4.00
	-analytic	1.102467e+03	1.347885e-01	-9.610548e+04	-3.760555e+02	8.743169e+06	-1.779581e-05
1.0000 H+ + 1.0000 SeO3-2 = HSe- + 1.5000 O2
	-llnl_gamma	4.00
	-analytic	9.917960e+02	1.314203e-01	-1.085894e+05	-3.373181e+02	8.146724e+06	-1.735988e-05
1.0000 H2O + 2.0000 Hg+2 = Hg2+2 + 0.5000 O2    + 2.0000 H+
	-llnl_gamma	4.00
	-analytic	1.102489e+03	1.269004e-01	-9.496066e+04	-3.754631e+02	8.716283e+06	-1.663352e-05
0.5000 H2O + 1.0000 Ho+3 = Ho+2 + 0.2500 O2    + 1.0000 H+
	-llnl_gamma	4.50
	-analytic	1.080249e+03	1.249230e-01	-1.118623e+05	-3.659262e+02	8.815190e+06	-1.647257e-05
0.2500 O2    + 1.0000 Ho+3 + 1.0000 H+ = Ho+4 + 0.5000 H2O
	-llnl_gamma	5.50
	-analytic	-1.236801e+03	-1.376033e-01	7.948152e+04	4.198745e+02	-9.657281e+06	1.815655e-05
2.0000 H+ + 0.5000 O2    + 3.0000 I- = I3- + 1.0000 H2O
	-llnl_gamma	4.00
	-analytic	1.266176e+03	1.635872e-01	-9.181569e+04	-4.376756e+02	9.990317e+06	-2.175417e-05
0.5000 O2    + 1.0000 I- = IO-
	-llnl_gamma	4.00
	-analytic	-3.023294e+02	-3.668291e-02	2.835232e+04	1.005100e+02	-2.514798e+06	4.808436e-06
1.5000 O2    + 1.0000 I- = IO3-
	-llnl_gamma	4.00
	-analytic	-5.691461e+01	-1.483713e-02	1.448149e+04	1.726073e+01	-6.916137e+05	2.002023e-06
2.0000 O2    + 1.0000 I- = IO4-
	-llnl_gamma	3.50
	-analytic	1.328801e+02	4.914556e-03	-4.211484e+03	-4.691982e+01	6.872038e+05	-6.586654e-07
0.5000 H2O + 1.0000 La+3 = La+2 + 0.2500 O2    + 1.0000 H+
	-llnl_gamma	4.50
	-analytic	8.633851e+02	1.006649e-01	-9.885703e+04	-2.917047e+02	6.994783e+06	-1.322354e-05
0.2500 O2    + 1.0000 Lu+3 + 1.0000 H+ = Lu+4 + 0.5000 H2O
	-llnl_gamma	5.50
	-analytic	-1.265498e+03	-1.410406e-01	6.956837e+04	4.299761e+02	-9.937829e+06	1.862497e-05
0.2500 O2    + 1.0000 Mn+2 + 1.0000 H+ = Mn+3 + 0.5000 H2O
	-llnl_gamma	5.00
	-analytic	-1.195836e+03	-1.377320e-01	1.000588e+05	4.047680e+02	-9.776446e+06	1.822818e-05
1.5000 H2O + 1.0000 Mn+2 + 1.2500 O2    = MnO4- + 3.0000 H+
	-llnl_gamma	3.50
	-analytic	6.694663e+02	6.006119e-02	-5.908684e+04	-2.270019e+02	5.128478e+06	-7.769904e-06
2.0000 H2O + 1.0000 Mn+2 + 1.0000 O2    = MnO4-2 + 4.0000 H+
	-llnl_gamma	4.00
	-analytic	-3.043650e+02	-6.054687e-02	1.779801e+04	1.054065e+02	-2.565622e+06	8.201753e-06
1.5000 O2    + 2.0000 NH3    = N2    + 3.0000 H2O
	-llnl_gamma	3.00
	-analytic	-4.588881e+01	-7.180403e-03	3.977968e+04	1.449220e+01	-3.478830e+05	7.443695e-07
0.5000 O2    + 1.0000 H+ + 2.0000 NH3    = N2H5+ + 1.0000 H2O
	-llnl_gamma	4.00
	-analytic	-3.067498e+01	-8.661975e-03	1.023717e+04	9.855780e+00	-4.232968e+05	1.056419e-06
1.5000 O2    + 1.0000 NH3    = NO2- + 1.0000 H2O + 1.0000 H+
	-llnl_gamma	3.00
	-analytic	-5.469042e+02	-7.876678e-02	6.064114e+04	1.875673e+02	-4.509299e+06	1.033831e-05
2.0000 O2    + 1.0000 NH3    = NO3- + 1.0000 H2O + 1.0000 H+
	-llnl_gamma	3.00
	-analytic	-5.729604e+02	-8.467654e-02	6.830182e+04	1.961117e+02	-4.790532e+06	1.119288e-05
0.5000 H2O + 1.0000 Nd+3 = Nd+2 + 0.2500 O2    + 1.0000 H+
	-llnl_gamma	4.50
	-analytic	9.105055e+02	1.068311e-01	-9.701961e+04	-3.081248e+02	7.389964e+06	-1.402604e-05
0.2500 O2    + 1.0000 Nd+3 + 1.0000 H+ = Nd+4 + 0.5000 H2O
	-llnl_gamma	5.50
	-analytic	-1.223528e+03	-1.344858e-01	8.182289e+04	4.153474e+02	-9.496816e+06	1.760056e-05
2 H2O = O2 + 4 H+ + 4 e-
	-CO2_llnl_gamma
	-analytic	4.357466e+01	6.747733e-03	-2.869654e+04	-1.556625e+01	3.150441e+05	-6.975931e-07
0.5000 H2O + 1.0000 Pm+3 = Pm+2 + 0.2500 O2    + 1.0000 H+
	-llnl_gamma	4.50
	-analytic	1.075777e+03	1.258926e-01	-1.118447e+05	-3.645928e+02	8.823769e+06	-1.667222e-05
0.2500 O2    + 1.0000 Pm+3 + 1.0000 H+ = Pm+4 + 0.5000 H2O
	-llnl_gamma	5.50
	-analytic	-1.259419e+03	-1.385208e-01	8.265392e+04	4.275177e+02	-9.812096e+06	1.824206e-05
0.5000 H2O + 1.0000 Pr+3 = Pr+2 + 0.2500 O2    + 1.0000 H+
	-llnl_gamma	4.50
	-analytic	1.083481e+03	1.261887e-01	-1.133500e+05	-3.670744e+02	8.825463e+06	-1.666456e-05
0.2500 O2    + 1.0000 Pr+3 + 1.0000 H+ = Pr+4 + 0.5000 H2O
	-llnl_gamma	5.50
	-analytic	-1.162282e+03	-1.280560e-01	8.199266e+04	3.945248e+02	-8.996154e+06	1.680795e-05
0.5000 H2O + 1.0000 Rh+3 = Rh+2 + 0.2500 O2    + 1.0000 H+
	-llnl_gamma	4.50
	-analytic	1.018622e+03	1.180597e-01	-8.665680e+04	-3.454097e+02	8.274455e+06	-1.557796e-05
4.0000 H+ + 1.0000 RuO4-2 = Ru+2 + 2.0000 H2O + 1.0000 O2
	-llnl_gamma	4.50
	-analytic	1.553326e+03	1.935418e-01	-1.322640e+05	-5.293681e+02	1.354113e+07	-2.566426e-05
5.0000 H+ + 1.0000 RuO4-2 = Ru+3 + 2.5000 H2O + 0.7500 O2
	-llnl_gamma	5.00
	-analytic	5.376573e+02	7.685975e-02	-4.173686e+04	-1.851107e+02	5.298579e+06	-1.033149e-05
2.0000 SO4-2 + 2.0000 H+ = S2O3-2 + 1.0000 H2O + 2.0000 O2
	-llnl_gamma	4.00
	-analytic	1.751288e+03	2.287374e-01	-1.875821e+05	-5.973268e+02	1.410218e+07	-3.036877e-05